data_0017665
_audit_creation_method         'generated by CrystalMaker 9.0.4'
_publ_section_comment
;
American Mineralogist Crystal Structures Database code: 0017665


Chemical formula (sum): Si O2


Crystal structure data from: Wyckoff R (1925)  Die Kristallstruktur von $
-beta-Crystobalit Si O2 (bei hohen Temperaturen stabile Form). _cod_datab
ase_code 1010944. Zeitschrift fur Kristallographie 62:189-200

;
_cell_length_a                   7.1200(0)
_cell_length_b                   7.1200(0)
_cell_length_c                   7.1200(0)
_cell_angle_alpha               90.0000(0)
_cell_angle_beta                90.0000(0)
_cell_angle_gamma               90.0000(0)

_symmetry_space_group_name_H-M     'F d -3 m'
_symmetry_Int_Tables_number         227
_symmetry_cell_setting             cubic
loop_
_symmetry_equiv_pos_as_xyz
'+x,+y,+z'
'+x,1/2+y,1/2+z'
'1/2+x,1/2+y,+z'
'1/2+x,+y,1/2+z'
'+x,1/2-y,1/2-z'
'+x,-y,-z'
'1/2+x,-y,1/2-z'
'1/2+x,1/2-y,-z'
'1/2-x,+y,1/2-z'
'1/2-x,1/2+y,-z'
'-x,1/2+y,1/2-z'
'-x,+y,-z'
'1/2-x,1/2-y,+z'
'1/2-x,-y,1/2+z'
'-x,-y,+z'
'-x,1/2-y,1/2+z'
'+y,+z,+x'
'+y,1/2+z,1/2+x'
'1/2+y,1/2+z,+x'
'1/2+y,+z,1/2+x'
'+y,1/2-z,1/2-x'
'+y,-z,-x'
'1/2+y,-z,1/2-x'
'1/2+y,1/2-z,-x'
'1/2-y,+z,1/2-x'
'1/2-y,1/2+z,-x'
'-y,1/2+z,1/2-x'
'-y,+z,-x'
'1/2-y,1/2-z,+x'
'1/2-y,-z,1/2+x'
'-y,-z,+x'
'-y,1/2-z,1/2+x'
'+z,+x,+y'
'+z,1/2+x,1/2+y'
'1/2+z,1/2+x,+y'
'1/2+z,+x,1/2+y'
'+z,1/2-x,1/2-y'
'+z,-x,-y'
'1/2+z,-x,1/2-y'
'1/2+z,1/2-x,-y'
'1/2-z,+x,1/2-y'
'1/2-z,1/2+x,-y'
'-z,1/2+x,1/2-y'
'-z,+x,-y'
'1/2-z,1/2-x,+y'
'1/2-z,-x,1/2+y'
'-z,-x,+y'
'-z,1/2-x,1/2+y'
'1/4-y,1/4-x,1/4-z'
'1/4-y,3/4-x,3/4-z'
'3/4-y,3/4-x,1/4-z'
'3/4-y,1/4-x,3/4-z'
'1/4-y,1/4+x,1/4+z'
'1/4-y,3/4+x,3/4+z'
'3/4-y,3/4+x,1/4+z'
'3/4-y,1/4+x,3/4+z'
'1/4+y,1/4-x,1/4+z'
'1/4+y,3/4-x,3/4+z'
'3/4+y,3/4-x,1/4+z'
'3/4+y,1/4-x,3/4+z'
'1/4+y,1/4+x,1/4-z'
'1/4+y,3/4+x,3/4-z'
'3/4+y,3/4+x,1/4-z'
'3/4+y,1/4+x,3/4-z'
'1/4-x,1/4-z,1/4-y'
'1/4-x,3/4-z,3/4-y'
'3/4-x,3/4-z,1/4-y'
'3/4-x,1/4-z,3/4-y'
'1/4-x,1/4+z,1/4+y'
'1/4-x,3/4+z,3/4+y'
'3/4-x,3/4+z,1/4+y'
'3/4-x,1/4+z,3/4+y'
'1/4+x,1/4-z,1/4+y'
'1/4+x,3/4-z,3/4+y'
'3/4+x,3/4-z,1/4+y'
'3/4+x,1/4-z,3/4+y'
'1/4+x,1/4+z,1/4-y'
'1/4+x,3/4+z,3/4-y'
'3/4+x,3/4+z,1/4-y'
'3/4+x,1/4+z,3/4-y'
'1/4-z,1/4-y,1/4-x'
'1/4-z,3/4-y,3/4-x'
'3/4-z,3/4-y,1/4-x'
'3/4-z,1/4-y,3/4-x'
'1/4-z,1/4+y,1/4+x'
'1/4-z,3/4+y,3/4+x'
'3/4-z,3/4+y,1/4+x'
'3/4-z,1/4+y,3/4+x'
'1/4+z,1/4-y,1/4+x'
'1/4+z,3/4-y,3/4+x'
'3/4+z,3/4-y,1/4+x'
'3/4+z,1/4-y,3/4+x'
'1/4+z,1/4+y,1/4-x'
'1/4+z,3/4+y,3/4-x'
'3/4+z,3/4+y,1/4-x'
'3/4+z,1/4+y,3/4-x'
'1/4-x,1/4-y,1/4-z'
'1/4-x,3/4-y,3/4-z'
'3/4-x,3/4-y,1/4-z'
'3/4-x,1/4-y,3/4-z'
'1/4-x,1/4+y,1/4+z'
'1/4-x,3/4+y,3/4+z'
'3/4-x,3/4+y,1/4+z'
'3/4-x,1/4+y,3/4+z'
'1/4+x,1/4-y,1/4+z'
'1/4+x,3/4-y,3/4+z'
'3/4+x,3/4-y,1/4+z'
'3/4+x,1/4-y,3/4+z'
'1/4+x,1/4+y,1/4-z'
'1/4+x,3/4+y,3/4-z'
'3/4+x,3/4+y,1/4-z'
'3/4+x,1/4+y,3/4-z'
'1/4-y,1/4-z,1/4-x'
'1/4-y,3/4-z,3/4-x'
'3/4-y,3/4-z,1/4-x'
'3/4-y,1/4-z,3/4-x'
'1/4-y,1/4+z,1/4+x'
'1/4-y,3/4+z,3/4+x'
'3/4-y,3/4+z,1/4+x'
'3/4-y,1/4+z,3/4+x'
'1/4+y,1/4-z,1/4+x'
'1/4+y,3/4-z,3/4+x'
'3/4+y,3/4-z,1/4+x'
'3/4+y,1/4-z,3/4+x'
'1/4+y,1/4+z,1/4-x'
'1/4+y,3/4+z,3/4-x'
'3/4+y,3/4+z,1/4-x'
'3/4+y,1/4+z,3/4-x'
'1/4-z,1/4-x,1/4-y'
'1/4-z,3/4-x,3/4-y'
'3/4-z,3/4-x,1/4-y'
'3/4-z,1/4-x,3/4-y'
'1/4-z,1/4+x,1/4+y'
'1/4-z,3/4+x,3/4+y'
'3/4-z,3/4+x,1/4+y'
'3/4-z,1/4+x,3/4+y'
'1/4+z,1/4-x,1/4+y'
'1/4+z,3/4-x,3/4+y'
'3/4+z,3/4-x,1/4+y'
'3/4+z,1/4-x,3/4+y'
'1/4+z,1/4+x,1/4-y'
'1/4+z,3/4+x,3/4-y'
'3/4+z,3/4+x,1/4-y'
'3/4+z,1/4+x,3/4-y'
'+y,+x,+z'
'+y,1/2+x,1/2+z'
'1/2+y,1/2+x,+z'
'1/2+y,+x,1/2+z'
'+y,1/2-x,1/2-z'
'+y,-x,-z'
'1/2+y,-x,1/2-z'
'1/2+y,1/2-x,-z'
'1/2-y,+x,1/2-z'
'1/2-y,1/2+x,-z'
'-y,1/2+x,1/2-z'
'-y,+x,-z'
'1/2-y,1/2-x,+z'
'1/2-y,-x,1/2+z'
'-y,-x,+z'
'-y,1/2-x,1/2+z'
'+x,+z,+y'
'+x,1/2+z,1/2+y'
'1/2+x,1/2+z,+y'
'1/2+x,+z,1/2+y'
'+x,1/2-z,1/2-y'
'+x,-z,-y'
'1/2+x,-z,1/2-y'
'1/2+x,1/2-z,-y'
'1/2-x,+z,1/2-y'
'1/2-x,1/2+z,-y'
'-x,1/2+z,1/2-y'
'-x,+z,-y'
'1/2-x,1/2-z,+y'
'1/2-x,-z,1/2+y'
'-x,-z,+y'
'-x,1/2-z,1/2+y'
'+z,+y,+x'
'+z,1/2+y,1/2+x'
'1/2+z,1/2+y,+x'
'1/2+z,+y,1/2+x'
'+z,1/2-y,1/2-x'
'+z,-y,-x'
'1/2+z,-y,1/2-x'
'1/2+z,1/2-y,-x'
'1/2-z,+y,1/2-x'
'1/2-z,1/2+y,-x'
'-z,1/2+y,1/2-x'
'-z,+y,-x'
'1/2-z,1/2-y,+x'
'1/2-z,-y,1/2+x'
'-z,-y,+x'
'-z,1/2-y,1/2+x'

loop_
_atom_site_label
_atom_site_type_symbol
_atom_site_occupancy
_atom_site_fract_x
_atom_site_fract_y
_atom_site_fract_z
    O1    O  1.0000      0.1250    0.1250    0.1250
   Si1    Si 1.0000      0.0000    0.0000    0.0000

