data_cif

_cell_length_a                   7.1305(0)
_cell_length_b                   7.1305(0)
_cell_length_c                   7.1305(0)
_cell_angle_alpha               90.0000(0)
_cell_angle_beta                90.0000(0)
_cell_angle_gamma               90.0000(0)

_symmetry_space_group_name_H-M      'P1'
_symmetry_Int_Tables_number         1
_symmetry_cell_setting              triclinic

loop_
_atom_site_label
_atom_site_type_symbol
_atom_site_fract_x
_atom_site_fract_y
_atom_site_fract_z
_atom_site_occupancy
O1            O          0.1250    0.1250    0.1250     1.000
O1            O          0.1250    0.6250    0.6250     1.000
O1            O          0.6250    0.6250    0.1250     1.000
O1            O          0.6250    0.1250    0.6250     1.000
O1            O          0.1250    0.3750    0.3750     1.000
O1            O          0.1250    0.8750    0.8750     1.000
O1            O          0.6250    0.8750    0.3750     1.000
O1            O          0.6250    0.3750    0.8750     1.000
O1            O          0.3750    0.1250    0.3750     1.000
O1            O          0.3750    0.6250    0.8750     1.000
O1            O          0.8750    0.6250    0.3750     1.000
O1            O          0.8750    0.1250    0.8750     1.000
O1            O          0.3750    0.3750    0.1250     1.000
O1            O          0.3750    0.8750    0.6250     1.000
O1            O          0.8750    0.8750    0.1250     1.000
O1            O          0.8750    0.3750    0.6250     1.000
Si1           Si         0.0000    0.0000    0.0000     1.000
Si1           Si         0.0000    0.5000    0.5000     1.000
Si1           Si         0.5000    0.5000    0.0000     1.000
Si1           Si         0.5000    0.0000    0.5000     1.000
Si1           Si         0.2500    0.2500    0.2500     1.000
Si1           Si         0.2500    0.7500    0.7500     1.000
Si1           Si         0.7500    0.7500    0.2500     1.000
Si1           Si         0.7500    0.2500    0.7500     1.000
